[Format]      =  4.0
[Frequency]   =  60
[Precision]   =  1e-008
[MinAngle]    =  30
[Depth]       =  1025
[LengthUnits] =  millimeters
[ProblemType] =  planar
[Coordinates] =  cartesian
[ACSolver]    =  0
[PrevSoln]    =  ""
[Comment]     =  "Add comments here."
[PointProps]   = 0
[BdryProps]   = 1
  <BeginBdry>
    <BdryName> = "New Boundary"
    <BdryType> = 0
    <A_0> = 0
    <A_1> = 0
    <A_2> = 0
    <Phi> = 0
    <c0> = 0
    <c0i> = 0
    <c1> = 0
    <c1i> = 0
    <Mu_ssd> = 0
    <Sigma_ssd> = 0
  <EndBdry>
[BlockProps]  = 9
  <BeginBlock>
    <BlockName> = "air"
    <Mu_x> = 1
    <Mu_y> = 1
    <H_c> = 0
    <H_cAngle> = 0
    <J_re> = 0
    <J_im> = 0
    <Sigma> = 0
    <d_lam> = 0
    <Phi_h> = 0
    <Phi_hx> = 0
    <Phi_hy> = 0
    <LamType> = 0
    <LamFill> = 1
    <NStrands> = 0
    <WireD> = 0
    <BHPoints> = 0
  <EndBlock>
  <BeginBlock>
    <BlockName> = "steel"
    <Mu_x> = 30
    <Mu_y> = 30
    <H_c> = 0
    <H_cAngle> = 0
    <J_re> = 0
    <J_im> = 0
    <Sigma> = 3.7200000000000002
    <d_lam> = 0
    <Phi_h> = 0
    <Phi_hx> = 0
    <Phi_hy> = 0
    <LamType> = 0
    <LamFill> = 1
    <NStrands> = 0
    <WireD> = 0
    <BHPoints> = 0
  <EndBlock>
  <BeginBlock>
    <BlockName> = "Aluminum"
    <Mu_x> = 1
    <Mu_y> = 1
    <H_c> = 0
    <H_cAngle> = 0
    <J_re> = 0
    <J_im> = 0
    <Sigma> = 37.200000000000003
    <d_lam> = 0
    <Phi_h> = 0
    <Phi_hx> = 0
    <Phi_hy> = 0
    <LamType> = 0
    <LamFill> = 1
    <NStrands> = 0
    <WireD> = 0
    <BHPoints> = 0
  <EndBlock>
  <BeginBlock>
    <BlockName> = "A+"
    <Mu_x> = 1
    <Mu_y> = 1
    <H_c> = 0
    <H_cAngle> = 0
    <J_re> = 3.5370820559852998
    <J_im> = -0.011266730972486394
    <Sigma> = 0
    <d_lam> = 0
    <Phi_h> = 0
    <Phi_hx> = 0
    <Phi_hy> = 0
    <LamType> = 0
    <LamFill> = 1
    <NStrands> = 0
    <WireD> = 0
    <BHPoints> = 0
  <EndBlock>
  <BeginBlock>
    <BlockName> = "A-"
    <Mu_x> = 1
    <Mu_y> = 1
    <H_c> = 0
    <H_cAngle> = 0
    <J_re> = -3.5370820559852998
    <J_im> = 0.011266730972486394
    <Sigma> = 0
    <d_lam> = 0
    <Phi_h> = 0
    <Phi_hx> = 0
    <Phi_hy> = 0
    <LamType> = 0
    <LamFill> = 1
    <NStrands> = 0
    <WireD> = 0
    <BHPoints> = 0
  <EndBlock>
  <BeginBlock>
    <BlockName> = "B+"
    <Mu_x> = 1
    <Mu_y> = 1
    <H_c> = 0
    <H_cAngle> = 0
    <J_re> = -1.7555243665664488
    <J_im> = 3.0707019732288368
    <Sigma> = 0
    <d_lam> = 0
    <Phi_h> = 0
    <Phi_hx> = 0
    <Phi_hy> = 0
    <LamType> = 0
    <LamFill> = 1
    <NStrands> = 0
    <WireD> = 0
    <BHPoints> = 0
  <EndBlock>
  <BeginBlock>
    <BlockName> = "B-"
    <Mu_x> = 1
    <Mu_y> = 1
    <H_c> = 0
    <H_cAngle> = 0
    <J_re> = 1.7555243665664488
    <J_im> = -3.0707019732288368
    <Sigma> = 0
    <d_lam> = 0
    <Phi_h> = 0
    <Phi_hx> = 0
    <Phi_hy> = 0
    <LamType> = 0
    <LamFill> = 1
    <NStrands> = 0
    <WireD> = 0
    <BHPoints> = 0
  <EndBlock>
  <BeginBlock>
    <BlockName> = "C+"
    <Mu_x> = 1
    <Mu_y> = 1
    <H_c> = 0
    <H_cAngle> = 0
    <J_re> = -1.7847871543060407
    <J_im> = -3.0537863749489986
    <Sigma> = 0
    <d_lam> = 0
    <Phi_h> = 0
    <Phi_hx> = 0
    <Phi_hy> = 0
    <LamType> = 0
    <LamFill> = 1
    <NStrands> = 0
    <WireD> = 0
    <BHPoints> = 0
  <EndBlock>
  <BeginBlock>
    <BlockName> = "C-"
    <Mu_x> = 1
    <Mu_y> = 1
    <H_c> = 0
    <H_cAngle> = 0
    <J_re> = 1.7847871543060407
    <J_im> = 3.0537863749489986
    <Sigma> = 0
    <d_lam> = 0
    <Phi_h> = 0
    <Phi_hx> = 0
    <Phi_hy> = 0
    <LamType> = 0
    <LamFill> = 1
    <NStrands> = 0
    <WireD> = 0
    <BHPoints> = 0
  <EndBlock>
[CircuitProps]  = 0
[NumPoints] = 42
108	0	0	0
-108	0	0	0
-4.1768381510416486	31.726235563962042	0	5
-6.7873619954426232	51.555132791438332	0	5
-25.387306889319607	19.48036572827916	0	5
-41.254373695144388	31.655594308453644	0	5
4.1768381510416974	31.726235563962035	0	5
6.7873619954427316	51.555132791438339	0	5
-29.564145040361268	12.24586983568296	0	5
-48.041735690587089	19.899538482984806	0	5
-29.564145040361314	-12.245869835682868	0	5
-48.04173569058711	-19.899538482984727	0	5
-25.387306889319632	-19.480365728279114	0	5
-41.254373695144423	-31.655594308453544	0	5
-4.1768381510417019	-31.726235563962042	0	5
-6.78736199544276	-51.555132791438368	0	5
4.1768381510416415	-31.726235563962042	0	5
6.7873619954426356	-51.555132791438332	0	5
25.387306889319582	-19.48036572827916	0	5
41.254373695144373	-31.655594308453672	0	5
29.564145040361275	-12.245869835682962	0	5
48.041735690587068	-19.899538482984795	0	5
29.564145040361328	12.245869835682875	0	5
48.041735690587082	19.899538482984685	0	5
25.387306889319621	19.480365728279104	0	5
41.254373695144409	31.655594308453509	0	5
13.511804152313307	-14.745546736202627	0	0
-13.511804152313307	14.745546736202627	0	0
21.449167802887217	-17.997988792462319	0	0
-21.449167802887217	17.997988792462319	0	0
57	0	0	0
-57	0	0	0
2.7999999999999998	47.799999999999997	0	0
0	0	0	0
52.000000000000178	0	0	0
32.000000000000135	0	0	0
-15.320888862379688	-12.855752193730883	0	0
-21.449167802887242	-17.997988792462266	0	0
-52.000000000000213	0	0	0
-32.000000000000121	0	0	0
15.320888862379688	12.855752193730883	0	0
21.449167802887242	17.997988792462266	0	0
[NumSegments] = 12
25	24	-1	0	0	5
7	6	-1	0	0	5
2	3	-1	0	0	5
4	5	-1	0	0	5
9	8	-1	0	0	5
10	11	-1	0	0	5
13	12	-1	0	0	5
14	15	-1	0	0	5
17	16	-1	0	0	5
18	19	-1	0	0	5
21	20	-1	0	0	5
22	23	-1	0	0	5
[NumArcSegments] = 40
1	0	180	1	1	0	0
0	1	180	1	1	0	0
25	7	45	1	0	0	5
3	5	45	1	0	0	5
9	38	22.50000000000005	1	0	0	5
13	15	45	1	0	0	5
17	19	45	1	0	0	5
21	34	22.500000000000068	1	0	0	5
24	6	45	1	0	0	5
2	4	45	1	0	0	5
8	39	22.500000000000085	1	0	0	5
12	14	45	1	0	0	5
16	18	45	1	0	0	5
20	35	22.500000000000092	1	0	0	5
23	25	15	1	0	0	5
7	3	15	1	0	0	5
5	9	15	1	0	0	5
11	13	15	1	0	0	5
15	17	15	1	0	0	5
19	21	15	1	0	0	5
22	24	15	1	0	0	5
6	2	15	1	0	0	5
4	8	15	1	0	0	5
10	12	15	1	0	0	5
14	16	15	1	0	0	5
18	20	15	1	0	0	5
26	40	87.500000000000043	1	0	0	0
27	36	87.500000000000043	1	0	0	0
28	41	80.000000000000099	1	0	0	0
29	37	80.000000000000099	1	0	0	0
30	31	180	1	0	0	0
31	30	180	1	0	0	0
34	23	22.499999999999943	1	0	0	5
35	22	22.499999999999918	1	0	0	5
36	26	92.499999999999943	1	0	0	0
37	28	99.999999999999901	1	0	0	0
38	11	22.499999999999961	1	0	0	5
39	10	22.499999999999911	1	0	0	5
40	27	92.499999999999943	1	0	0	0
41	29	99.999999999999901	1	0	0	0
[NumHoles] = 0
[NumBlockLabels] = 17
18.076392872456115	-51.01219482359712	2	-1	0	0	1	1	0
-0.94995466118722982	-43.036003370918337	1	-1	0	0	5	1	0
22.369152065823297	-34.023830411287896	7	-1	0	0	5	1	0
35.406229606259949	-24.482624554340731	1	-1	0	0	5	1	0
37.948601160896288	-7.2044201662054572	8	-1	0	0	5	1	0
35.190007339367554	20.46126544120046	1	-1	0	0	5	1	0
23.210995593564341	31.484117957401068	5	-1	0	0	5	1	0
2.646050853500078	41.976164842451929	1	-1	0	0	5	1	0
-17.705330720421212	35.826265003213997	6	-1	0	0	5	1	0
-34.769971942413527	21.726689833561462	1	-1	0	0	5	1	0
-39.220230121672707	3.2823085173465363	9	-1	0	0	5	1	0
-34.871878507444343	-21.839232801590118	1	-1	0	0	5	1	0
-22.786528362027866	-36.46606813472637	4	-1	0	0	5	1	0
-0.94779660422042777	-25.16151190999982	3	-1	0	0	5	1	0
-1.5630168346029751	3.2491504081449389	2	-1	0	0	5	1	0
30.380338587132123	-4.3914721143653068	1	-1	0	0	5	1	0
56.200000000000003	12.199999999999999	1	-1	0	0	0	1	0
